9

C          1.01110        0.07708       -0.05953
C          2.52569        0.07985       -0.06640
O          3.00581        1.24365       -0.72365
H          0.62516       -0.80571        0.45780
H          0.61937        0.08556       -1.08199
H          0.62645        0.97441        0.43620
H          2.91751       -0.80185       -0.58251
H          2.91316        0.08142        0.95654
H          2.66453        1.22802       -1.63407
