9
Coordinates from ORCA-job Ethanol_orca_CCSD
  C   0.99559984531391      0.07327342297280     -0.05933014937900
  C   2.52231838097066      0.09191241523515     -0.09243746018465
  O   3.03836209374709      1.26087552079497     -0.71192037639781
  H   0.62060914790369     -0.81425568427458      0.48034528206683
  H   0.58170651677469      0.04460168078781     -1.08462303364903
  H   0.61412178654971      0.98041291929100      0.43928765865064
  H   2.90216361726562     -0.82797211851133     -0.58429263376353
  H   2.92343212983129      0.09715884582188      0.93531424928968
  H   2.71046648164333      1.25642299788228     -1.61995353663313
