5
Coordinates from ORCA-job Methane_orca_CCSD
  C   1.01824543659297      0.09314753968256      0.03147356773985
  H   2.11984182002539      0.09315225512243      0.03146883271108
  H   0.65105975037054     -0.60878441594582      0.79695908867530
  H   0.65105064961700     -0.21880987397127     -0.95916152488515
  H   0.65105234339409      1.10704449511211      0.25662003575893
